P6
32 32
255
ǔʔ˜ɠǠʗӗߟॳڦԩ˜ʥըΧɤƖ×rrttrqśǔ̔ƘǘʕИ֥ԟǟĝ̛Ş~gi}TUeorqrqq}}ffÒŏŐǒƔʞ˙rw^_sRUgz|ppsrwv}}{ykkr{}~ňŌuuquww[[oY[oxxuqrnssuyyyptgc}okwu|yz{pu~xx``s]`q^_s^cymovwurllbhilz|qued~rr~xy|y~jnvzorqqklmonocdvNM_nnagfjhmotmoxxy~zosinsx~nnZZpifxsWTgFFViiaaTVpW[oX_ufkjjpummoakUmfjttlldd~ONdii`a]\y``vgldijkxy~~liqossxj>)0D+6kw|ttlldd~a`yjjab|`_{vvjlV[oZ^vwxtuuuzzlkljkkml{wRiC"(V*4vPghkXXpXXpnnXXpUXpmmjkX`z]c{mn}zuzbf^^tghkmlUkJ*:V9PX?MT3D}^ljhh^_{bfgi``}XZree~efaggkxzquircf{pw]b{\^yLLaPQd[]o|~F0<U4NѰoK`M3AwnfYYh=>LFJ^XZxZZrTUjNO`QQece`b~``vllptai[_ynsejHK`XZoCCVA=O_[ruqnXj/(v冀緔,_pNKU11;01=;;MLI_MJ`XWkGJ[UXpTXpVWk_`z[_xPSiQSgNN_[[p^b\]se`yDD[{t~l6$(mSxᤳ`EHU3Gqqg{>>K22>00;BBVNNiHH]CCVAATAASXYqacac~UXk99HTTo^^zMPfOQf@<KON^zmM6C:'8}Υc9FsQdFDU,,6//7//:;;JKK`>>Q==P66CPMdb_~VUpPWn34BNNhHH]?@RDEXBBTVNa^GSh7LYGk窫툦∳ރ]pa<Ie=8G*+4019""*..:AAS99K::K88HBBUPPjNNkJMg99J99JBBURRkBBVbbq>-30$5ߥ|ޙ󙄢P0:T8OZJ^41<''1##-##---:.,:22A55H((2/0<99K33C78H=>PII[??PBAXQOc`J[/ (Ĝ~ӁޞۖeA&1uVubXy#",%&'2//:&$-+)3''0%&0!#+(*4**6//=88ICCRCCS]VqA2?I+8^墵IX圹ﲗ)Ywn.*6"$-./:#$#))5*-8$&**8,,:BBUXWnOE[6$.9)>ԥ#(1v՘wZdZ3DuXq@7E )*6! #++744C*+5)*7,.=13C8;Le^w:.9@)7e^?Eo7?\'$c{翦΄NgkEXq($- "11@>>Q"",! )#$0"%.<>Nw:&0V➷ꔱ揭偎dtf߶k_6Cu=3?!66J//B(##))0KGTL4B=%2О钷яԟﮜZ<AI/@nTh"'",)6 )$$3++9$%0JE]4'0K'7b媳堲貰ߡt,pLdL@W$		'&/!$$3$#0''2_PhU3?P'5[ٯں£ؿܷᴪ䱬㱰㰳筵ꪶꭶ䳾షຖ8$uB\cMj"&
+)6!!.%%1(%,*"&%7 *&&""0!;#W(7rQgL?N

'%/" $O@P\tuQjuSj}^~bFigIfoLkmJjbD``oHfMvqBnO4`uQwuBdc6]Y3L_1EN%7h3HxPfs[o
''0"73E_Rmshֆ֔Ք֔֗ԝҝҔύ}uυĐqsbK;N]Kc]G\[GX(!*(&1=>Zjw搣옮홨핤옧陨疦瑢䑚ቍpo


	,)4
	
8:Qq}ٕᖳ랼霴䜩y{
			-/< :<Tq~ԌՎ眳웴畭旭ퟶ斶ܙ␫یnn		
'+6!
33Ju݄Ⅼ~֋םҐ׃≤㛯࠺ٔ䏦匕x|			
